LTspice 24.1.1 for Windows
Circuit: C:\Users\Sadakov\Desktop\МФТИ\Основы электроники\4 лекция\Simulation\Common Base.net
Start Time: Thu Mar 13 19:37:19 2025
solver = Normal
Maximum thread count: 28
tnom = 27
temp = 27
method = modified trap
C:\Users\Sadakov\Desktop\МФТИ\Основы электроники\4 лекция\Simulation\Common Base.net(4): Limiting rise time to 0.01.

V1 0 N001 PULSE(0 1.5 0 0 0 0.1 0.2)
^^^^^^^^^^^^^^^^^^^^^^^^^^^^^^^^^^^^
C:\Users\Sadakov\Desktop\МФТИ\Основы электроники\4 лекция\Simulation\Common Base.net(4): Limiting fall time to 0.01.

V1 0 N001 PULSE(0 1.5 0 0 0 0.1 0.2)
^^^^^^^^^^^^^^^^^^^^^^^^^^^^^^^^^^^^
.OP point found by inspection.
Total elapsed time: 0.338 seconds.

Files loaded:
C:\Users\Sadakov\Desktop\МФТИ\Основы электроники\4 лекция\Simulation\Common Base.net
C:\Users\Sadakov\AppData\Local\LTspice\lib\cmp\standard.bjt

